Version 4
SHEET 1 880 680
WIRE 64 16 -64 16
WIRE 224 16 144 16
WIRE 304 16 224 16
WIRE -64 144 -64 16
WIRE 224 144 224 16
WIRE -64 272 -64 224
WIRE 112 272 -64 272
WIRE 224 272 224 208
WIRE 224 272 112 272
WIRE 112 288 112 272
FLAG 112 288 0
FLAG 304 16 V0
SYMBOL voltage -64 128 R0
WINDOW 3 24 160 Left 0
WINDOW 123 24 44 Left 0
WINDOW 39 0 0 Left 0
SYMATTR Value ""
SYMATTR Value2 AC 10 0
SYMATTR InstName V1
SYMBOL res 160 0 R90
WINDOW 0 0 56 VBottom 0
WINDOW 3 32 56 VTop 0
SYMATTR InstName R1
SYMATTR Value 100
SYMBOL cap 208 144 R0
SYMATTR InstName C1
SYMATTR Value 0.000000001
TEXT -96 312 Left 0 !.ac dec 1000 1 100000000
